sectionalized/peak_load/0pc/TNB_DUMA_EXP_SEQVOLTAGES.CSV
Bus,  V1,  p.u.,Base kV, V2, %V2/V1, V0, %V0/V1, Vresidual, %NEMA
"PPU_DUMA_33KV",    18895.5,   0.99176,    33.00, 9.24942E-006, 4.895E-008, 1.23939E-006, 6.559E-009, 3.71815E-006, 6.562E-009
"PPU_DUMA_11KV_A",    6222.17,   0.97974,    11.00, 3.23142E-006, 5.193E-008, 9.89524E-009, 1.59E-010, 2.96882E-008, 6.644E-009
"PPU_DUMA_11KV_B",    6188.62,   0.97445,    11.00, 3.21639E-006, 5.197E-008, 1.42518E-008, 2.303E-010, 4.27575E-008, 6.682E-009
"RPPLNGI2",    6150.81,    0.9685,    11.00, 3.19934E-006, 5.201E-008, 1.48943E-008, 2.422E-010, 4.4685E-008, 6.725E-009
"PDTJLNMASJID",    6122.41,   0.96403,    11.00, 3.18653E-006, 5.205E-008, 1.55665E-008, 2.543E-010, 4.67019E-008, 6.757E-009
"BELLA",    6103.46,   0.96105,    11.00, 3.17798E-006, 5.207E-008, 1.60965E-008, 2.637E-010, 4.82916E-008, 6.778E-009
"PSTPDGN",    6093.97,   0.95955,    11.00, 3.1737E-006, 5.208E-008, 1.63828E-008, 2.688E-010, 4.91509E-008, 6.789E-009
"ATRIA_1",    6157.38,   0.96954,    11.00, 3.20229E-006, 5.201E-008, 1.47602E-008, 2.397E-010, 4.42835E-008, 6.717E-009
"HAWKER",    6150.99,   0.96853,    11.00, 3.19941E-006, 5.201E-008, 1.68829E-008, 2.745E-010, 5.06508E-008, 6.724E-009
"DUMA7",    6178.45,   0.97285,    11.00, 3.21183E-006, 5.198E-008, 1.43958E-008, 2.33E-010, 4.31899E-008, 6.694E-009
"HAUS",    6166.41,   0.97096,    11.00, 3.20645E-006, 5.2E-008, 1.78887E-008, 2.901E-010, 5.36687E-008, 6.708E-009
"DUMA6",    6135.81,   0.96614,    11.00, 3.19283E-006, 5.204E-008, 3.67327E-008, 5.987E-010, 1.10201E-007, 6.746E-009
"DUMA13",    6112.62,   0.96249,    11.00, 3.18253E-006, 5.206E-008, 5.3331E-008, 8.725E-010, 1.59995E-007, 6.775E-009
"SSU_DUMA5_IM2",    6106.52,   0.96153,    11.00, 3.17981E-006, 5.207E-008, 5.3687E-008, 8.792E-010, 1.61063E-007, 6.782E-009
"PDTLITRAK",     6136.2,    0.9662,    11.00, 3.19281E-006, 5.203E-008, 1.52215E-008, 2.481E-010, 4.56662E-008, 6.742E-009
"DUMA12",    6115.01,   0.96286,    11.00, 3.18328E-006, 5.206E-008, 1.5768E-008, 2.579E-010, 4.73064E-008, 6.766E-009
"TMNGH4",    6098.55,   0.96027,    11.00, 3.1759E-006, 5.208E-008, 2.31541E-008, 3.797E-010, 6.94646E-008, 6.786E-009
"SSU_TMEGAH3_IR1",    6091.75,    0.9592,    11.00, 3.17285E-006, 5.208E-008, 2.73111E-008, 4.483E-010, 8.19355E-008, 6.794E-009
"TMNGH2",    6087.86,   0.95859,    11.00, 3.17111E-006, 5.209E-008, 2.98289E-008, 4.9E-010, 8.9489E-008, 6.799E-009
"SSU_UPTWRES_IM2",    6174.98,   0.97231,    11.00, 3.21025E-006, 5.199E-008, 1.72113E-008, 2.787E-010, 5.16364E-008, 6.698E-009
"MAYBANK",    6166.93,   0.97104,    11.00, 3.20662E-006, 5.2E-008, 1.75291E-008, 2.842E-010, 5.25898E-008, 6.707E-009
"DUMA8",    6165.67,   0.97084,    11.00, 3.20605E-006, 5.2E-008, 1.80796E-008, 2.932E-010, 5.42412E-008, 6.708E-009
"DUMA9",    6136.97,   0.96632,    11.00, 3.19309E-006, 5.203E-008, 1.52007E-008, 2.477E-010, 4.56039E-008, 6.74E-009
"DUMA1",       6116,   0.96302,    11.00, 3.18362E-006, 5.205E-008, 1.57358E-008, 2.573E-010, 4.72094E-008, 6.764E-009
"ELITE",     6108.5,   0.96184,    11.00, 3.18024E-006, 5.206E-008, 1.59459E-008, 2.61E-010, 4.784E-008, 6.772E-009
"PAMDRA",     6220.4,   0.97946,    11.00, 3.23062E-006, 5.194E-008, 9.92004E-009, 1.595E-010, 2.97618E-008, 6.646E-009
"DUMA4",    6214.06,   0.97846,    11.00, 3.22777E-006, 5.194E-008, 1.1655E-008, 1.876E-010, 3.49675E-008, 6.653E-009
"PLSDRA",    6197.72,   0.97589,    11.00, 3.22043E-006, 5.196E-008, 2.07952E-008, 3.355E-010, 6.23884E-008, 6.671E-009
"PRMTE",    6167.32,    0.9711,    11.00, 3.20683E-006, 5.2E-008, 3.63028E-008, 5.886E-010, 1.0891E-007, 6.707E-009
"PRMTA",     6159.3,   0.96984,    11.00, 3.20324E-006, 5.201E-008, 3.67645E-008, 5.969E-010, 1.10295E-007, 6.716E-009
"PMONTB",    6155.74,   0.96928,    11.00, 3.20166E-006, 5.201E-008, 3.93278E-008, 6.389E-010, 1.17985E-007, 6.721E-009
"PLNGI_B",       6216,   0.97877,    11.00, 3.22863E-006, 5.194E-008, 9.98185E-009, 1.606E-010, 2.99479E-008, 6.651E-009
"PLNGI_D",    6215.35,   0.97866,    11.00, 3.22834E-006, 5.194E-008, 9.99173E-009, 1.608E-010, 2.99774E-008, 6.651E-009
"SPRK9",    6125.27,   0.96448,    11.00, 3.18774E-006, 5.204E-008, 1.2406E-008, 2.025E-010, 3.72206E-008, 6.752E-009
"BOMBA",    6120.89,   0.96379,    11.00, 3.18577E-006, 5.205E-008, 1.43582E-008, 2.346E-010, 4.30773E-008, 6.757E-009
"SPRK8",    6109.93,   0.96206,    11.00, 3.18084E-006, 5.206E-008, 2.08137E-008, 3.407E-010, 6.2443E-008, 6.77E-009
"SSU_DSARCNTR_IR1",    6220.29,   0.97944,    11.00, 3.23057E-006, 5.194E-008, 9.92099E-009, 1.595E-010, 2.97649E-008, 6.646E-009
"DUMA10",    6200.29,   0.97629,    11.00, 3.22154E-006, 5.196E-008, 1.02473E-008, 1.653E-010, 3.0744E-008, 6.668E-009
"BALAIPOLIS",    6200.06,   0.97626,    11.00, 3.22144E-006, 5.196E-008, 1.02515E-008, 1.653E-010, 3.07563E-008, 6.668E-009
"SSU_UPTWRES_IR1",    6192.11,     0.975,    11.00, 3.2179E-006, 5.197E-008, 2.10996E-008, 3.408E-010, 6.33014E-008, 6.678E-009
"PPU_DUMA_VCB1",          0,         0,    33.00,          0,        0,          0,        0,          0,        0
